*Heading
** Job name: Q4_15 Model name: Model-1
** Generated by: Abaqus/CAE Student Edition 2016
*Preprint, echo=NO, model=NO, history=NO, contact=NO
**
** PARTS
**
*Part, name=Part_Geometry
*Node
      1,           0.,           0.
      2, 0.0153846154,           0.
      3, 0.0307692308,           0.
      4, 0.0461538471,           0.
      5, 0.0615384616,           0.
      6, 0.0769230798,           0.
      7, 0.0923076943,           0.
      8,  0.107692309,           0.
      9,  0.123076923,           0.
     10,  0.138461545,           0.
     11,   0.15384616,           0.
     12,  0.169230774,           0.
     13,  0.184615389,           0.
     14,  0.200000003,           0.
     15,           0., 0.0149253728
     16, 0.0153846154, 0.0149253728
     17, 0.0307692308, 0.0149253728
     18, 0.0461538471, 0.0149253728
     19, 0.0615384616, 0.0149253728
     20, 0.0769230798, 0.0149253728
** ... 932 like lines cut
** End Node
*Element, type=CPS4
  1,   1,   2,  16,  15
  2,   2,   3,  17,  16
  3,   3,   4,  18,  17
  4,   4,   5,  19,  18
  5,   5,   6,  20,  19
  6,   6,   7,  21,  20
  7,   7,   8,  22,  21
  8,   8,   9,  23,  22
  9,   9,  10,  24,  23
 10,  10,  11,  25,  24
 11,  11,  12,  26,  25
 12,  12,  13,  27,  26
 13,  13,  14,  28,  27
 14,  15,  16,  30,  29
 15,  16,  17,  31,  30
 16,  17,  18,  32,  31
 17,  18,  19,  33,  32
 18,  19,  20,  34,  33
 19,  20,  21,  35,  34
 20,  21,  22,  36,  35
** ... 851 like lines cut
** End Element
*Nset, nset=Set_Section, generate
   1,  952,    1
*Elset, elset=Set_Section, generate
   1,  871,    1
** Section: Section_Steel
*Solid Section, elset=Set_Section, material=Material_Steel
1.,
*End Part
**  
**
** ASSEMBLY
**
*Assembly, name=Assembly
**  
*Instance, name=Part_Geometry-1, part=Part_Geometry
*End Instance
**  
*Nset, nset=Set_Encastre, instance=Part_Geometry-1, generate
  1,  14,   1
*Elset, elset=Set_Encastre, instance=Part_Geometry-1, generate
  1,  13,   1
*Nset, nset=Set_Output, instance=Part_Geometry-1
   1,   2,   3,   4,   5,   6,   7,   8,   9,  10,  11,  12,  13,  14, 939, 940
 941, 942, 943, 944, 945, 946, 947, 948, 949, 950, 951, 952
*Elset, elset=Set_Output, instance=Part_Geometry-1
   1,   2,   3,   4,   5,   6,   7,   8,   9,  10,  11,  12,  13, 859, 860, 861
 862, 863, 864, 865, 866, 867, 868, 869, 870, 871
*Elset, elset=_Set_Load_S3, internal, instance=Part_Geometry-1, generate
 859,  871,    1
*Surface, type=ELEMENT, name=Set_Load
_Set_Load_S3, S3
*End Assembly
** 
** MATERIALS
** 
*Material, name=Material_Steel
*Elastic
 2e+11, 0.3
** ----------------------------------------------------------------
** 
** STEP: Step_Load
** 
*Step, name=Step_Load, nlgeom=NO
*Static
1., 1., 1e-05, 1.
** 
** BOUNDARY CONDITIONS
** 
** Name: BC Type: Symmetry/Antisymmetry/Encastre
*Boundary
Set_Encastre, ENCASTRE
** 
** LOADS
** 
** Name: Load   Type: Pressure
*Dsload
Set_Load, P, 2.5e+07
** 
** OUTPUT REQUESTS
** 
*Restart, write, frequency=0
** 
** FIELD OUTPUT: F-Output-1
** 
*Output, field
*Node Output, nset=Set_Output
CF, RF, U
*Element Output, elset=Set_Output, directions=YES
E, LE, PE, PEEQ, PEMAG, S
*Contact Output, nset=Set_Output
CDISP, CSTRESS
** 
** HISTORY OUTPUT: H-Output-1
** 
*Output, history, variable=PRESELECT
*End Step
