*Heading
** Job name: Q4_30 Model name: Model-1
** Generated by: Abaqus/CAE Student Edition 2016
*Preprint, echo=NO, model=NO, history=NO, contact=NO
**
** PARTS
**
*Part, name=Part_Geometry
*Node
      1,           0.,           0.
      2, 0.0285714287,           0.
      3, 0.0571428575,           0.
      4, 0.0857142881,           0.
      5,  0.114285715,           0.
      6,  0.142857149,           0.
      7,  0.171428576,           0.
      8,  0.200000003,           0.
      9,           0., 0.0303030312
     10, 0.0285714287, 0.0303030312
     11, 0.0571428575, 0.0303030312
     12, 0.0857142881, 0.0303030312
     13,  0.114285715, 0.0303030312
     14,  0.142857149, 0.0303030312
     15,  0.171428576, 0.0303030312
     16,  0.200000003, 0.0303030312
     17,           0., 0.0606060624
     18, 0.0285714287, 0.0606060624
     19, 0.0571428575, 0.0606060624
     20, 0.0857142881, 0.0606060624
** ... 252 like lines cut
*Element, type=CPS4
  1,   1,   2,  10,   9
  2,   2,   3,  11,  10
  3,   3,   4,  12,  11
  4,   4,   5,  13,  12
  5,   5,   6,  14,  13
  6,   6,   7,  15,  14
  7,   7,   8,  16,  15
  8,   9,  10,  18,  17
  9,  10,  11,  19,  18
 10,  11,  12,  20,  19
 11,  12,  13,  21,  20
 12,  13,  14,  22,  21
 13,  14,  15,  23,  22
 14,  15,  16,  24,  23
 15,  17,  18,  26,  25
 16,  18,  19,  27,  26
 17,  19,  20,  28,  27
 18,  20,  21,  29,  28
 19,  21,  22,  30,  29
 20,  22,  23,  31,  30
** ... 211 like lines cut
*Nset, nset=Set_Section, generate
   1,  272,    1
*Elset, elset=Set_Section, generate
   1,  231,    1
** Section: Section_Steel
*Solid Section, elset=Set_Section, material=Material_Steel
1.,
*End Part
**  
**
** ASSEMBLY
**
*Assembly, name=Assembly
**  
*Instance, name=Part_Geometry-1, part=Part_Geometry
*End Instance
**  
*Nset, nset=Set_Encastre, instance=Part_Geometry-1, generate
 1,  8,  1
*Elset, elset=Set_Encastre, instance=Part_Geometry-1, generate
 1,  7,  1
*Nset, nset=Set_Output, instance=Part_Geometry-1
   1,   2,   3,   4,   5,   6,   7,   8, 265, 266, 267, 268, 269, 270, 271, 272
*Elset, elset=Set_Output, instance=Part_Geometry-1
   1,   2,   3,   4,   5,   6,   7, 225, 226, 227, 228, 229, 230, 231
*Elset, elset=_Set_Load_S3, internal, instance=Part_Geometry-1, generate
 225,  231,    1
*Surface, type=ELEMENT, name=Set_Load
_Set_Load_S3, S3
*End Assembly
** 
** MATERIALS
** 
*Material, name=Material_Steel
*Elastic
 2e+11, 0.3
** ----------------------------------------------------------------
** 
** STEP: Step_Load
** 
*Step, name=Step_Load, nlgeom=NO
*Static
1., 1., 1e-05, 1.
** 
** BOUNDARY CONDITIONS
** 
** Name: BC Type: Symmetry/Antisymmetry/Encastre
*Boundary
Set_Encastre, ENCASTRE
** 
** LOADS
** 
** Name: Load   Type: Pressure
*Dsload
Set_Load, P, 2.5e+07
** 
** OUTPUT REQUESTS
** 
*Restart, write, frequency=0
** 
** FIELD OUTPUT: F-Output-1
** 
*Output, field
*Node Output, nset=Set_Output
CF, RF, U
*Element Output, elset=Set_Output, directions=YES
E, LE, PE, PEEQ, PEMAG, S
*Contact Output, nset=Set_Output
CDISP, CSTRESS
** 
** HISTORY OUTPUT: H-Output-1
** 
*Output, history, variable=PRESELECT
*End Step
