*Heading
** Job name: Q4_45 Model name: Model-1
** Generated by: Abaqus/CAE Student Edition 2016
*Preprint, echo=NO, model=NO, history=NO, contact=NO
**
** PARTS
**
*Part, name=Part_Geometry
*Node
      1,           0.,           0.
      2, 0.0500000007,           0.
      3,  0.100000001,           0.
      4,  0.150000006,           0.
      5,  0.200000003,           0.
      6,           0., 0.0454545468
      7, 0.0500000007, 0.0454545468
      8,  0.100000001, 0.0454545468
      9,  0.150000006, 0.0454545468
     10,  0.200000003, 0.0454545468
     11,           0., 0.0909090936
     12, 0.0500000007, 0.0909090936
     13,  0.100000001, 0.0909090936
     14,  0.150000006, 0.0909090936
     15,  0.200000003, 0.0909090936
     16,           0.,   0.13636364
     17, 0.0500000007,   0.13636364
     18,  0.100000001,   0.13636364
     19,  0.150000006,   0.13636364
     20,  0.200000003,   0.13636364
** ... 95 like lines cut
** End Element
*Element, type=CPS4
 1,   1,   2,   7,   6
 2,   2,   3,   8,   7
 3,   3,   4,   9,   8
 4,   4,   5,  10,   9
 5,   6,   7,  12,  11
 6,   7,   8,  13,  12
 7,   8,   9,  14,  13
 8,   9,  10,  15,  14
 9,  11,  12,  17,  16
10,  12,  13,  18,  17
11,  13,  14,  19,  18
12,  14,  15,  20,  19
13,  16,  17,  22,  21
14,  17,  18,  23,  22
15,  18,  19,  24,  23
16,  19,  20,  25,  24
17,  21,  22,  27,  26
18,  22,  23,  28,  27
19,  23,  24,  29,  28
20,  24,  25,  30,  29
** ... 68 like lines cut
** End Element
*Nset, nset=Set_Section, generate
   1,  115,    1
*Elset, elset=Set_Section, generate
  1,  88,   1
** Section: Section_Steel
*Solid Section, elset=Set_Section, material=Material_Steel
1.,
*End Part
**  
**
** ASSEMBLY
**
*Assembly, name=Assembly
**  
*Instance, name=Part_Geometry-1, part=Part_Geometry
*End Instance
**  
*Nset, nset=Set_Encastre, instance=Part_Geometry-1, generate
 1,  5,  1
*Elset, elset=Set_Encastre, instance=Part_Geometry-1, generate
 1,  4,  1
*Nset, nset=Set_Output, instance=Part_Geometry-1
   1,   2,   3,   4,   5, 111, 112, 113, 114, 115
*Elset, elset=Set_Output, instance=Part_Geometry-1
  1,  2,  3,  4, 85, 86, 87, 88
*Elset, elset=_Set_Load_S3, internal, instance=Part_Geometry-1, generate
 85,  88,   1
*Surface, type=ELEMENT, name=Set_Load
_Set_Load_S3, S3
*End Assembly
** 
** MATERIALS
** 
*Material, name=Material_Steel
*Elastic
 2e+11, 0.3
** ----------------------------------------------------------------
** 
** STEP: Step_Load
** 
*Step, name=Step_Load, nlgeom=NO
*Static
1., 1., 1e-05, 1.
** 
** BOUNDARY CONDITIONS
** 
** Name: BC Type: Symmetry/Antisymmetry/Encastre
*Boundary
Set_Encastre, ENCASTRE
** 
** LOADS
** 
** Name: Load   Type: Pressure
*Dsload
Set_Load, P, 2.5e+07
** 
** OUTPUT REQUESTS
** 
*Restart, write, frequency=0
** 
** FIELD OUTPUT: F-Output-1
** 
*Output, field
*Node Output, nset=Set_Output
CF, RF, U
*Element Output, elset=Set_Output, directions=YES
E, LE, PE, PEEQ, PEMAG, S
*Contact Output, nset=Set_Output
CDISP, CSTRESS
** 
** HISTORY OUTPUT: H-Output-1
** 
*Output, history, variable=PRESELECT
*End Step
