*Heading
** Job name: T6_105 Model name: Model-1
** Generated by: Abaqus/CAE Student Edition 2016
*Preprint, echo=NO, model=NO, history=NO, contact=NO
**
** PARTS
**
*Part, name=Part_Geometry
*Node
      1,           0.,           0.
      2,  0.100000001,           0.
      3,  0.200000003,           0.
      4,           0.,  0.100000001
      5,  0.100000001,  0.100000001
      6,  0.200000003,  0.100000001
      7,           0.,  0.200000003
      8,  0.100000001,  0.200000003
      9,  0.200000003,  0.200000003
     10,           0.,  0.300000012
     11,  0.100000001,  0.300000012
     12,  0.200000003,  0.300000012
     13,           0.,  0.400000006
     14,  0.100000001,  0.400000006
     15,  0.200000003,  0.400000006
     16,           0.,          0.5
     17,  0.100000001,          0.5
     18,  0.200000003,          0.5
     19,           0.,  0.600000024
     20,  0.100000001,  0.600000024
** ... 85 like lines cut
** End Element
*Element, type=CPS6M
 1,   1,   2,   5,  34,  35,  36
 2,   5,   4,   1,  37,  38,  36
 3,   2,   3,   6,  39,  40,  41
 4,   6,   5,   2,  42,  35,  41
 5,   4,   5,   8,  37,  43,  44
 6,   8,   7,   4,  45,  46,  44
 7,   5,   6,   9,  42,  47,  48
 8,   9,   8,   5,  49,  43,  48
 9,   7,   8,  11,  45,  50,  51
10,  11,  10,   7,  52,  53,  51
11,   8,   9,  12,  49,  54,  55
12,  12,  11,   8,  56,  50,  55
13,  10,  11,  14,  52,  57,  58
14,  14,  13,  10,  59,  60,  58
15,  11,  12,  15,  56,  61,  62
16,  15,  14,  11,  63,  57,  62
17,  13,  14,  17,  59,  64,  65
18,  17,  16,  13,  66,  67,  65
19,  14,  15,  18,  63,  68,  69
20,  18,  17,  14,  70,  64,  69
** ... 20 like lines cut
** End Element
*Nset, nset=Set_Section, generate
   1,  105,    1
*Elset, elset=Set_Section, generate
  1,  40,   1
** Section: Section_Steel
*Solid Section, elset=Set_Section, material=Material_Steel
1.,
*End Part
**  
**
** ASSEMBLY
**
*Assembly, name=Assembly
**  
*Instance, name=Part_Geometry-1, part=Part_Geometry
*End Instance
**  
*Nset, nset=Set_Encastre, instance=Part_Geometry-1
  1,  2,  3, 34, 39
*Elset, elset=Set_Encastre, instance=Part_Geometry-1
 1, 3
*Nset, nset=Set_Output, instance=Part_Geometry-1
   1,   2,   3,  31,  32,  33,  34,  39, 101, 105
*Elset, elset=Set_Output, instance=Part_Geometry-1
  1,  3, 38, 40
*Elset, elset=_Set_Load_S1, internal, instance=Part_Geometry-1
 38, 40
*Surface, type=ELEMENT, name=Set_Load
_Set_Load_S1, S1
*End Assembly
** 
** MATERIALS
** 
*Material, name=Material_Steel
*Elastic
 2e+11, 0.3
** ----------------------------------------------------------------
** 
** STEP: Step_Load
** 
*Step, name=Step_Load, nlgeom=NO
*Static
1., 1., 1e-05, 1.
** 
** BOUNDARY CONDITIONS
** 
** Name: BC Type: Symmetry/Antisymmetry/Encastre
*Boundary
Set_Encastre, ENCASTRE
** 
** LOADS
** 
** Name: Load   Type: Pressure
*Dsload
Set_Load, P, 2.5e+07
** 
** OUTPUT REQUESTS
** 
*Restart, write, frequency=0
** 
** FIELD OUTPUT: F-Output-1
** 
*Output, field
*Node Output, nset=Set_Output
CF, RF, U
*Element Output, elset=Set_Output, directions=YES
E, LE, PE, PEEQ, PEMAG, S
*Contact Output, nset=Set_Output
CDISP, CSTRESS
** 
** HISTORY OUTPUT: H-Output-1
** 
*Output, history, variable=PRESELECT
*End Step
