*Heading
** Job name: T6_120 Model name: Model-1
** Generated by: Abaqus/CAE Student Edition 2016
*Preprint, echo=NO, model=NO, history=NO, contact=NO
**
** PARTS
**
*Part, name=Part_Geometry
*Node
      1,           0.,           0.
      2,  0.100000001,           0.
      3,  0.200000003,           0.
      4,           0.,        0.125
      5,  0.100000001,        0.125
      6,  0.200000003,        0.125
      7,           0.,         0.25
      8,  0.100000001,         0.25
      9,  0.200000003,         0.25
     10,           0.,        0.375
     11,  0.100000001,        0.375
     12,  0.200000003,        0.375
     13,           0.,          0.5
     14,  0.100000001,          0.5
     15,  0.200000003,          0.5
     16,           0.,        0.625
     17,  0.100000001,        0.625
     18,  0.200000003,        0.625
     19,           0.,         0.75
     20,  0.100000001,         0.75
** ... 65 like lines cut
*Element, type=CPS6M
 1,  1,  2,  5, 28, 29, 30
 2,  5,  4,  1, 31, 32, 30
 3,  2,  3,  6, 33, 34, 35
 4,  6,  5,  2, 36, 29, 35
 5,  4,  5,  8, 31, 37, 38
 6,  8,  7,  4, 39, 40, 38
 7,  5,  6,  9, 36, 41, 42
 8,  9,  8,  5, 43, 37, 42
 9,  7,  8, 11, 39, 44, 45
10, 11, 10,  7, 46, 47, 45
11,  8,  9, 12, 43, 48, 49
12, 12, 11,  8, 50, 44, 49
13, 10, 11, 14, 46, 51, 52
14, 14, 13, 10, 53, 54, 52
15, 11, 12, 15, 50, 55, 56
16, 15, 14, 11, 57, 51, 56
17, 13, 14, 17, 53, 58, 59
18, 17, 16, 13, 60, 61, 59
19, 14, 15, 18, 57, 62, 63
20, 18, 17, 14, 64, 58, 63
** ... 12 like lines cut
*Nset, nset=Set_Section, generate
  1,  85,   1
*Elset, elset=Set_Section, generate
  1,  32,   1
** Section: Section_Steel
*Solid Section, elset=Set_Section, material=Material_Steel
1.,
*End Part
**  
**
** ASSEMBLY
**
*Assembly, name=Assembly
**  
*Instance, name=Part_Geometry-1, part=Part_Geometry
*End Instance
**  
*Nset, nset=Set_Encastre, instance=Part_Geometry-1
  1,  2,  3, 28, 33
*Elset, elset=Set_Encastre, instance=Part_Geometry-1
 1, 3
*Nset, nset=Set_Output, instance=Part_Geometry-1
  1,  2,  3, 25, 26, 27, 28, 33, 81, 85
*Elset, elset=Set_Output, instance=Part_Geometry-1
  1,  3, 30, 32
*Elset, elset=_Set_Load_S1, internal, instance=Part_Geometry-1
 30, 32
*Surface, type=ELEMENT, name=Set_Load
_Set_Load_S1, S1
*End Assembly
** 
** MATERIALS
** 
*Material, name=Material_Steel
*Elastic
 2e+11, 0.3
** ----------------------------------------------------------------
** 
** STEP: Step_Load
** 
*Step, name=Step_Load, nlgeom=NO
*Static
1., 1., 1e-05, 1.
** 
** BOUNDARY CONDITIONS
** 
** Name: BC Type: Symmetry/Antisymmetry/Encastre
*Boundary
Set_Encastre, ENCASTRE
** 
** LOADS
** 
** Name: Load   Type: Pressure
*Dsload
Set_Load, P, 2.5e+07
** 
** OUTPUT REQUESTS
** 
*Restart, write, frequency=0
** 
** FIELD OUTPUT: F-Output-1
** 
*Output, field
*Node Output, nset=Set_Output
CF, RF, U
*Element Output, elset=Set_Output, directions=YES
E, LE, PE, PEEQ, PEMAG, S
*Contact Output, nset=Set_Output
CDISP, CSTRESS
** 
** HISTORY OUTPUT: H-Output-1
** 
*Output, history, variable=PRESELECT
*End Step
