*Heading
** Job name: T6_35 Model name: Model-1
** Generated by: Abaqus/CAE Student Edition 2016
*Preprint, echo=NO, model=NO, history=NO, contact=NO
**
** PARTS
**
*Part, name=Part_Geometry
*Node
      1,           0.,           0.
      2, 0.0333333351,           0.
      3, 0.0666666701,           0.
      4,  0.100000001,           0.
      5,   0.13333334,           0.
      6,  0.166666672,           0.
      7,  0.200000003,           0.
      8,           0., 0.0344827585
      9, 0.0333333351, 0.0344827585
     10, 0.0666666701, 0.0344827585
     11,  0.100000001, 0.0344827585
     12,   0.13333334, 0.0344827585
     13,  0.166666672, 0.0344827585
     14,  0.200000003, 0.0344827585
     15,           0.,  0.068965517
     16, 0.0333333351,  0.068965517
     17, 0.0666666701,  0.068965517
     18,  0.100000001,  0.068965517
     19,   0.13333334,  0.068965517
     20,  0.166666672,  0.068965517
** ... 747 like lines cut
*Element, type=CPS6M
  1,   1,   2,   9, 211, 212, 213
  2,   9,   8,   1, 214, 215, 213
  3,   2,   3,  10, 216, 217, 218
  4,  10,   9,   2, 219, 212, 218
  5,   3,   4,  11, 220, 221, 222
  6,  11,  10,   3, 223, 217, 222
  7,   4,   5,  12, 224, 225, 226
  8,  12,  11,   4, 227, 221, 226
  9,   5,   6,  13, 228, 229, 230
 10,  13,  12,   5, 231, 225, 230
 11,   6,   7,  14, 232, 233, 234
 12,  14,  13,   6, 235, 229, 234
 13,   8,   9,  16, 214, 236, 237
 14,  16,  15,   8, 238, 239, 237
 15,   9,  10,  17, 219, 240, 241
 16,  17,  16,   9, 242, 236, 241
 17,  10,  11,  18, 223, 243, 244
 18,  18,  17,  10, 245, 240, 244
 19,  11,  12,  19, 227, 246, 247
 20,  19,  18,  11, 248, 243, 247
** ... 328 like lines cut
*Nset, nset=Set_Section, generate
   1,  767,    1
*Elset, elset=Set_Section, generate
   1,  348,    1
** Section: Section_Steel
*Solid Section, elset=Set_Section, material=Material_Steel
1.,
*End Part
**  
**
** ASSEMBLY
**
*Assembly, name=Assembly
**  
*Instance, name=Part_Geometry-1, part=Part_Geometry
*End Instance
**  
*Nset, nset=Set_Encastre, instance=Part_Geometry-1
   1,   2,   3,   4,   5,   6,   7, 211, 216, 220, 224, 228, 232
*Elset, elset=Set_Encastre, instance=Part_Geometry-1, generate
  1,  11,   2
*Nset, nset=Set_Output, instance=Part_Geometry-1
   1,   2,   3,   4,   5,   6,   7, 204, 205, 206, 207, 208, 209, 210, 211, 216
 220, 224, 228, 232, 751, 755, 758, 761, 764, 767
*Elset, elset=Set_Output, instance=Part_Geometry-1
   1,   3,   5,   7,   9,  11, 338, 340, 342, 344, 346, 348
*Elset, elset=_Set_Load_S1, internal, instance=Part_Geometry-1, generate
 338,  348,    2
*Surface, type=ELEMENT, name=Set_Load
_Set_Load_S1, S1
*End Assembly
** 
** MATERIALS
** 
*Material, name=Material_Steel
*Elastic
 2e+11, 0.3
** ----------------------------------------------------------------
** 
** STEP: Step_Load
** 
*Step, name=Step_Load, nlgeom=NO
*Static
1., 1., 1e-05, 1.
** 
** BOUNDARY CONDITIONS
** 
** Name: BC Type: Symmetry/Antisymmetry/Encastre
*Boundary
Set_Encastre, ENCASTRE
** 
** LOADS
** 
** Name: Load   Type: Pressure
*Dsload
Set_Load, P, 2.5e+07
** 
** OUTPUT REQUESTS
** 
*Restart, write, frequency=0
** 
** FIELD OUTPUT: F-Output-1
** 
*Output, field
*Node Output, nset=Set_Output
CF, RF, U
*Element Output, elset=Set_Output, directions=YES
E, LE, PE, PEEQ, PEMAG, S
*Contact Output, nset=Set_Output
CDISP, CSTRESS
** 
** HISTORY OUTPUT: H-Output-1
** 
*Output, history, variable=PRESELECT
*End Step
