*Heading
** Job name: T6_50 Model name: Model-1
** Generated by: Abaqus/CAE Student Edition 2016
*Preprint, echo=NO, model=NO, history=NO, contact=NO
**
** PARTS
**
*Part, name=Part_Geometry
*Node
      1,           0.,           0.
      2, 0.0500000007,           0.
      3,  0.100000001,           0.
      4,  0.150000006,           0.
      5,  0.200000003,           0.
      6,           0., 0.0500000007
      7, 0.0500000007, 0.0500000007
      8,  0.100000001, 0.0500000007
      9,  0.150000006, 0.0500000007
     10,  0.200000003, 0.0500000007
     11,           0.,  0.100000001
     12, 0.0500000007,  0.100000001
     13,  0.100000001,  0.100000001
     14,  0.150000006,  0.100000001
     15,  0.200000003,  0.100000001
     16,           0.,  0.150000006
     17, 0.0500000007,  0.150000006
     18,  0.100000001,  0.150000006
     19,  0.150000006,  0.150000006
     20,  0.200000003,  0.150000006
** ... 349 like lines cut
** End Element
*Element, type=CPS6M
  1,   1,   2,   7, 106, 107, 108
  2,   7,   6,   1, 109, 110, 108
  3,   2,   3,   8, 111, 112, 113
  4,   8,   7,   2, 114, 107, 113
  5,   3,   4,   9, 115, 116, 117
  6,   9,   8,   3, 118, 112, 117
  7,   4,   5,  10, 119, 120, 121
  8,  10,   9,   4, 122, 116, 121
  9,   6,   7,  12, 109, 123, 124
 10,  12,  11,   6, 125, 126, 124
 11,   7,   8,  13, 114, 127, 128
 12,  13,  12,   7, 129, 123, 128
 13,   8,   9,  14, 118, 130, 131
 14,  14,  13,   8, 132, 127, 131
 15,   9,  10,  15, 122, 133, 134
 16,  15,  14,   9, 135, 130, 134
 17,  11,  12,  17, 125, 136, 137
 18,  17,  16,  11, 138, 139, 137
 19,  12,  13,  18, 129, 140, 141
 20,  18,  17,  12, 142, 136, 141
** ... 140 like lines cut
** End Element
*Nset, nset=Set_Section, generate
   1,  369,    1
*Elset, elset=Set_Section, generate
   1,  160,    1
** Section: Section_Steel
*Solid Section, elset=Set_Section, material=Material_Steel
1.,
*End Part
**  
**
** ASSEMBLY
**
*Assembly, name=Assembly
**  
*Instance, name=Part_Geometry-1, part=Part_Geometry
*End Instance
**  
*Nset, nset=Set_Encastre, instance=Part_Geometry-1
   1,   2,   3,   4,   5, 106, 111, 115, 119
*Elset, elset=Set_Encastre, instance=Part_Geometry-1, generate
 1,  7,  2
*Nset, nset=Set_Output, instance=Part_Geometry-1
   1,   2,   3,   4,   5, 101, 102, 103, 104, 105, 106, 111, 115, 119, 359, 363
 366, 369
*Elset, elset=Set_Output, instance=Part_Geometry-1
   1,   3,   5,   7, 154, 156, 158, 160
*Elset, elset=_Set_Load_S1, internal, instance=Part_Geometry-1, generate
 154,  160,    2
*Surface, type=ELEMENT, name=Set_Load
_Set_Load_S1, S1
*End Assembly
** 
** MATERIALS
** 
*Material, name=Material_Steel
*Elastic
 2e+11, 0.3
** ----------------------------------------------------------------
** 
** STEP: Step_Load
** 
*Step, name=Step_Load, nlgeom=NO
*Static
1., 1., 1e-05, 1.
** 
** BOUNDARY CONDITIONS
** 
** Name: BC Type: Symmetry/Antisymmetry/Encastre
*Boundary
Set_Encastre, ENCASTRE
** 
** LOADS
** 
** Name: Load   Type: Pressure
*Dsload
Set_Load, P, 2.5e+07
** 
** OUTPUT REQUESTS
** 
*Restart, write, frequency=0
** 
** FIELD OUTPUT: F-Output-1
** 
*Output, field
*Node Output, nset=Set_Output
CF, RF, U
*Element Output, elset=Set_Output, directions=YES
E, LE, PE, PEEQ, PEMAG, S
*Contact Output, nset=Set_Output
CDISP, CSTRESS
** 
** HISTORY OUTPUT: H-Output-1
** 
*Output, history, variable=PRESELECT
*End Step
