*Heading
** Job name: T6_90 Model name: Model-1
** Generated by: Abaqus/CAE Student Edition 2016
*Preprint, echo=NO, model=NO, history=NO, contact=NO
**
** PARTS
**
*Part, name=Part_Geometry
*Node
      1,           0.,           0.
      2,  0.100000001,           0.
      3,  0.200000003,           0.
      4,           0., 0.0909090936
      5,  0.100000001, 0.0909090936
      6,  0.200000003, 0.0909090936
      7,           0.,  0.181818187
      8,  0.100000001,  0.181818187
      9,  0.200000003,  0.181818187
     10,           0.,  0.272727281
     11,  0.100000001,  0.272727281
     12,  0.200000003,  0.272727281
     13,           0.,  0.363636374
     14,  0.100000001,  0.363636374
     15,  0.200000003,  0.363636374
     16,           0.,  0.454545468
     17,  0.100000001,  0.454545468
     18,  0.200000003,  0.454545468
     19,           0.,  0.545454562
     20,  0.100000001,  0.545454562
** ... 95 like lines cut
** End Element
*Element, type=CPS6M
 1,   1,   2,   5,  37,  38,  39
 2,   5,   4,   1,  40,  41,  39
 3,   2,   3,   6,  42,  43,  44
 4,   6,   5,   2,  45,  38,  44
 5,   4,   5,   8,  40,  46,  47
 6,   8,   7,   4,  48,  49,  47
 7,   5,   6,   9,  45,  50,  51
 8,   9,   8,   5,  52,  46,  51
 9,   7,   8,  11,  48,  53,  54
10,  11,  10,   7,  55,  56,  54
11,   8,   9,  12,  52,  57,  58
12,  12,  11,   8,  59,  53,  58
13,  10,  11,  14,  55,  60,  61
14,  14,  13,  10,  62,  63,  61
15,  11,  12,  15,  59,  64,  65
16,  15,  14,  11,  66,  60,  65
17,  13,  14,  17,  62,  67,  68
18,  17,  16,  13,  69,  70,  68
19,  14,  15,  18,  66,  71,  72
20,  18,  17,  14,  73,  67,  72
** ... 24 like lines cut
** End Element
*Nset, nset=Set_Section, generate
   1,  115,    1
*Elset, elset=Set_Section, generate
  1,  44,   1
** Section: Section_Steel
*Solid Section, elset=Set_Section, material=Material_Steel
1.,
*End Part
**  
**
** ASSEMBLY
**
*Assembly, name=Assembly
**  
*Instance, name=Part_Geometry-1, part=Part_Geometry
*End Instance
**  
*Nset, nset=Set_Encastre, instance=Part_Geometry-1
  1,  2,  3, 37, 42
*Elset, elset=Set_Encastre, instance=Part_Geometry-1
 1, 3
*Nset, nset=Set_Output, instance=Part_Geometry-1
   1,   2,   3,  34,  35,  36,  37,  42, 111, 115
*Elset, elset=Set_Output, instance=Part_Geometry-1
  1,  3, 42, 44
*Elset, elset=_Set_Load_S1, internal, instance=Part_Geometry-1
 42, 44
*Surface, type=ELEMENT, name=Set_Load
_Set_Load_S1, S1
*End Assembly
** 
** MATERIALS
** 
*Material, name=Material_Steel
*Elastic
 2e+11, 0.3
** ----------------------------------------------------------------
** 
** STEP: Step_Load
** 
*Step, name=Step_Load, nlgeom=NO
*Static
1., 1., 1e-05, 1.
** 
** BOUNDARY CONDITIONS
** 
** Name: BC Type: Symmetry/Antisymmetry/Encastre
*Boundary
Set_Encastre, ENCASTRE
** 
** LOADS
** 
** Name: Load   Type: Pressure
*Dsload
Set_Load, P, 2.5e+07
** 
** OUTPUT REQUESTS
** 
*Restart, write, frequency=0
** 
** FIELD OUTPUT: F-Output-1
** 
*Output, field
*Node Output, nset=Set_Output
CF, RF, U
*Element Output, elset=Set_Output, directions=YES
E, LE, PE, PEEQ, PEMAG, S
*Contact Output, nset=Set_Output
CDISP, CSTRESS
** 
** HISTORY OUTPUT: H-Output-1
** 
*Output, history, variable=PRESELECT
*End Step
