*Heading
** Job name: T6 Model name: Model-1
** Generated by: Abaqus/CAE Student Edition 2016
*Preprint, echo=NO, model=NO, history=NO, contact=NO
**
** PARTS
**
*Part, name=Part-1
*Node
      1,         -35.,          80.
      2,         -45.,          80.
      3,         -55.,          80.
      4,         -35.,          70.
      5,         -45.,          70.
      6,         -55.,          70.
      7,         -35.,          60.
      8,         -45.,          60.
      9,         -55.,          60.
     10,         -35.,          50.
     11,         -45.,          50.
     12,         -55.,          50.
     13,         -35.,          40.
     14,         -45.,          40.
     15,         -55.,          40.
     16,         -35.,          30.
     17,         -45.,          30.
     18,         -55.,          30.
     19,         -35.,          20.
     20,         -45.,          20.
** ... 85 like lines cut
*Element, type=CPS6M
 1,   1,   2,   5,  34,  35,  36
 2,   5,   4,   1,  37,  38,  36
 3,   2,   3,   6,  39,  40,  41
 4,   6,   5,   2,  42,  35,  41
 5,   4,   5,   8,  37,  43,  44
 6,   8,   7,   4,  45,  46,  44
 7,   5,   6,   9,  42,  47,  48
 8,   9,   8,   5,  49,  43,  48
 9,   7,   8,  11,  45,  50,  51
10,  11,  10,   7,  52,  53,  51
11,   8,   9,  12,  49,  54,  55
12,  12,  11,   8,  56,  50,  55
13,  10,  11,  14,  52,  57,  58
14,  14,  13,  10,  59,  60,  58
15,  11,  12,  15,  56,  61,  62
16,  15,  14,  11,  63,  57,  62
17,  13,  14,  17,  59,  64,  65
18,  17,  16,  13,  66,  67,  65
19,  14,  15,  18,  63,  68,  69
20,  18,  17,  14,  70,  64,  69
** ... 20 like lines cut
*Nset, nset=Set-1, generate
   1,  105,    1
*Elset, elset=Set-1, generate
  1,  40,   1
** Section: Section-1
*Solid Section, elset=Set-1, material=Material-1
10.,
*End Part
**  
**
** ASSEMBLY
**
*Assembly, name=Assembly
**  
*Instance, name=Part-1-1, part=Part-1
*End Instance
**  
*Nset, nset=Set-1, instance=Part-1-1
  31,  32,  33, 101, 105
*Elset, elset=Set-1, instance=Part-1-1
 38, 40
*Nset, nset=Set-2, instance=Part-1-1
  1,  2,  3, 34, 39
*Elset, elset=Set-2, instance=Part-1-1
 1, 3
*Elset, elset=_Surf-1_S1, internal, instance=Part-1-1
 1, 3
*Surface, type=ELEMENT, name=Surf-1
_Surf-1_S1, S1
*End Assembly
** 
** MATERIALS
** 
*Material, name=Material-1
*Elastic
 2e+11, 0.3
** ----------------------------------------------------------------
** 
** STEP: load
** 
*Step, name=load, nlgeom=NO
*Static
1., 1., 1e-05, 1.
** 
** BOUNDARY CONDITIONS
** 
** Name: BC-1 Type: Symmetry/Antisymmetry/Encastre
*Boundary
Set-1, ENCASTRE
** 
** LOADS
** 
** Name: Load-1   Type: Pressure
*Dsload
Surf-1, P, 10.
** 
** OUTPUT REQUESTS
** 
*Restart, write, frequency=0
** 
** FIELD OUTPUT: F-Output-1
** 
*Output, field, variable=PRESELECT
** 
** HISTORY OUTPUT: H-Output-1
** 
*Output, history
*Node Output, nset=Set-2
U1, U2, U3, UR1, UR2, UR3
*Element Output, elset=Set-2
E11, E12, E13, E22, E23, E33, EE11, EE12, EE13, EE22, EE23, EE33, EEP, EP, INV3, PRESS
S11, S12, S13, S22, S23, S33, SP, TRESC
*Energy Output, elset=Set-2
ALLAE, ALLCD, ALLDMD, ALLEE, ALLFD, ALLIE, ALLJD, ALLKE, ALLKL, ALLPD, ALLQB, ALLSD, ALLSE, ALLVD, ALLWK, ETOTAL
*End Step
